<?xml version="1.0" encoding="UTF-8"?>

<!-- generated on 2025-06-12 04:14:56 by Eclipse SUMO netedit Version 1.23.1
<neteditConfiguration xmlns:xsi="http://www.w3.org/2001/XMLSchema-instance" xsi:noNamespaceSchemaLocation="http://sumo.dlr.de/xsd/neteditConfiguration.xsd">

    <input>
        <sumo-net-file value="D:\SUMO\simulador-urbano\mapa.net.xml"/>
    </input>

    <output>
        <output-file value="D:\SUMO\simulador-urbano\mapa.net.xml"/>
    </output>

    <processing>
        <geometry.min-radius.fix.railways value="false"/>
        <geometry.avoid-overlap value="false"/>
        <geometry.max-grade.fix value="false"/>
        <offset.disable-normalization value="true"/>
        <lefthand value="0"/>
    </processing>

    <junctions>
        <no-turnarounds value="true"/>
        <junctions.corner-detail value="5"/>
        <junctions.limit-turn-speed value="5.50"/>
        <rectangular-lane-cut value="0"/>
    </junctions>

    <pedestrian>
        <walkingareas value="0"/>
    </pedestrian>

</neteditConfiguration>
-->

<net version="1.20" junctionCornerDetail="5" limitTurnSpeed="5.50" avoidOverlap="0" xmlns:xsi="http://www.w3.org/2001/XMLSchema-instance" xsi:noNamespaceSchemaLocation="http://sumo.dlr.de/xsd/net_file.xsd">

    <location netOffset="0.00,0.00" convBoundary="-100.00,0.00,80.00,100.00" origBoundary="-10000000000.00,-10000000000.00,10000000000.00,10000000000.00" projParameter="!"/>

    <edge id=":J0_0" function="internal">
        <lane id=":J0_0_0" index="0" speed="3.90" length="2.58" shape="-95.20,93.60 -95.10,94.30 -94.80,94.80 -94.30,95.10 -93.60,95.20"/>
        <lane id=":J0_0_1" index="1" speed="6.08" length="7.74" shape="-98.40,93.60 -98.10,95.70 -97.20,97.20 -95.70,98.10 -93.60,98.40"/>
    </edge>
    <edge id=":J1_0" function="internal">
        <lane id=":J1_0_0" index="0" disallow="pedestrian" speed="6.51" length="9.03" shape="-38.40,86.40 -38.05,88.85 -37.00,90.60 -35.25,91.65 -32.80,92.00"/>
    </edge>
    <edge id=":J1_1" function="internal">
        <lane id=":J1_1_0" index="0" speed="13.89" length="11.20" shape="-44.00,95.20 -32.80,95.20"/>
        <lane id=":J1_1_1" index="1" speed="13.89" length="11.20" shape="-44.00,98.40 -32.80,98.40"/>
    </edge>
    <edge id=":J12_0" function="internal">
        <lane id=":J12_0_0" index="0" speed="3.90" length="2.58" shape="75.20,6.40 75.10,5.70 74.80,5.20 74.30,4.90 73.60,4.80"/>
        <lane id=":J12_0_1" index="1" speed="6.08" length="7.74" shape="78.40,6.40 78.10,4.30 77.20,2.80 75.70,1.90 73.60,1.60"/>
    </edge>
    <edge id=":J13_0" function="internal">
        <lane id=":J13_0_0" index="0" speed="6.51" length="9.03" shape="18.40,13.60 18.05,11.15 17.00,9.40 15.25,8.35 12.80,8.00"/>
    </edge>
    <edge id=":J13_1" function="internal">
        <lane id=":J13_1_0" index="0" speed="13.89" length="11.20" shape="24.00,4.80 12.80,4.80"/>
        <lane id=":J13_1_1" index="1" speed="13.89" length="11.20" shape="24.00,1.60 12.80,1.60"/>
    </edge>
    <edge id=":J14_0" function="internal">
        <lane id=":J14_0_0" index="0" speed="6.51" length="9.03" shape="-32.80,8.00 -35.25,8.35 -37.00,9.40 -38.05,11.15 -38.40,13.60"/>
    </edge>
    <edge id=":J14_1" function="internal">
        <lane id=":J14_1_0" index="0" speed="13.89" length="11.20" shape="-32.80,4.80 -44.00,4.80"/>
        <lane id=":J14_1_1" index="1" speed="13.89" length="11.20" shape="-32.80,1.60 -44.00,1.60"/>
    </edge>
    <edge id=":J15_0" function="internal">
        <lane id=":J15_0_0" index="0" speed="3.90" length="2.58" shape="-93.60,4.80 -94.30,4.90 -94.80,5.20 -95.10,5.70 -95.20,6.40"/>
        <lane id=":J15_0_1" index="1" speed="6.08" length="7.74" shape="-93.60,1.60 -95.70,1.90 -97.20,2.80 -98.10,4.30 -98.40,6.40"/>
    </edge>
    <edge id=":J2_0" function="internal">
        <lane id=":J2_0_0" index="0" disallow="pedestrian" speed="6.51" length="9.03" shape="12.80,92.00 15.25,91.65 17.00,90.60 18.05,88.85 18.40,86.40"/>
    </edge>
    <edge id=":J2_1" function="internal">
        <lane id=":J2_1_0" index="0" speed="13.89" length="11.20" shape="12.80,95.20 24.00,95.20"/>
        <lane id=":J2_1_1" index="1" speed="13.89" length="11.20" shape="12.80,98.40 24.00,98.40"/>
    </edge>
    <edge id=":J3_0" function="internal">
        <lane id=":J3_0_0" index="0" speed="3.90" length="2.58" shape="73.60,95.20 74.30,95.10 74.80,94.80 75.10,94.30 75.20,93.60"/>
        <lane id=":J3_0_1" index="1" speed="6.08" length="7.74" shape="73.60,98.40 75.70,98.10 77.20,97.20 78.10,95.70 78.40,93.60"/>
    </edge>
    <edge id=":J5_0" function="internal">
        <lane id=":J5_0_0" index="0" allow="bicycle" speed="4.71" length="4.95" width="1.00" shape="-92.10,63.30 -92.97,63.55 -93.60,64.30 -93.98,65.55 -94.10,67.30"/>
        <lane id=":J5_0_1" index="1" allow="bus" speed="6.02" length="7.58" shape="-92.10,61.20 -93.46,61.58 -94.42,62.73 -95.01,64.63 -95.20,67.30"/>
        <lane id=":J5_0_2" index="2" disallow="pedestrian" speed="6.97" length="10.51" shape="-92.10,58.00 -93.46,58.58 -94.42,60.33 -95.01,63.23 -95.20,67.30"/>
        <lane id=":J5_0_3" index="3" disallow="pedestrian" speed="8.34" length="15.49" shape="-92.10,54.80 -94.86,55.58 -96.82,57.92 -98.01,61.83 -98.40,67.30"/>
    </edge>
    <edge id=":J5_4" function="internal">
        <lane id=":J5_4_0" index="0" allow="bicycle" speed="5.02" length="4.95" width="1.00" shape="-94.10,32.70 -93.97,34.45 -93.60,35.70 -92.98,36.45 -92.10,36.70"/>
        <lane id=":J5_4_1" index="1" allow="bus" speed="6.02" length="7.58" shape="-95.20,32.70 -95.01,35.37 -94.43,37.27 -93.46,38.42 -92.10,38.80"/>
        <lane id=":J5_4_2" index="2" disallow="pedestrian" speed="7.59" length="12.67" shape="-98.40,32.70 -98.01,36.77 -96.83,39.67 -94.86,41.42 -92.10,42.00"/>
        <lane id=":J5_4_3" index="3" disallow="pedestrian" speed="8.34" length="15.49" shape="-98.40,32.70 -98.01,38.17 -96.83,42.07 -94.86,44.42 -92.10,45.20"/>
        <lane id=":J5_4_4" index="4" disallow="pedestrian" speed="9.04" length="18.39" shape="-98.40,32.70 -98.01,39.57 -96.83,44.48 -94.86,47.42 -92.10,48.40"/>
    </edge>
    <edge id=":J5_9" function="internal">
        <lane id=":J5_9_0" index="0" speed="13.89" length="34.68" shape="-98.40,32.70 -97.90,40.92 -96.80,50.00 -95.70,59.08 -95.20,67.30"/>
        <lane id=":J5_9_1" index="1" speed="13.89" length="34.68" shape="-98.40,32.70 -98.40,67.30"/>
    </edge>
    <edge id=":J6_0" function="internal">
        <lane id=":J6_0_0" index="0" allow="bicycle" speed="4.71" length="4.95" width="1.00" shape="-35.30,63.30 -36.17,63.55 -36.80,64.30 -37.17,65.55 -37.30,67.30"/>
    </edge>
    <edge id=":J6_1" function="internal">
        <lane id=":J6_1_0" index="0" allow="bicycle" speed="13.89" length="6.54" width="1.00" shape="-35.30,63.30 -41.50,63.30"/>
        <lane id=":J6_1_1" index="1" allow="bus" speed="13.89" length="6.54" shape="-35.30,61.20 -41.50,61.20"/>
        <lane id=":J6_1_2" index="2" allow="bus" speed="13.89" length="6.54" shape="-35.30,61.20 -37.25,60.70 -38.40,59.60 -39.55,58.50 -41.50,58.00"/>
    </edge>
    <edge id=":J6_4" function="internal">
        <lane id=":J6_4_0" index="0" disallow="pedestrian" speed="6.97" length="1.24" shape="-35.30,58.00 -36.44,58.49"/>
    </edge>
    <edge id=":J6_5" function="internal">
        <lane id=":J6_5_0" index="0" disallow="pedestrian" speed="13.89" length="6.20" shape="-35.30,54.80 -41.50,54.80"/>
        <lane id=":J6_5_1" index="1" disallow="pedestrian" speed="13.89" length="6.20" shape="-35.30,51.60 -41.50,51.60"/>
    </edge>
    <edge id=":J6_19" function="internal">
        <lane id=":J6_19_0" index="0" disallow="pedestrian" speed="6.97" length="9.26" shape="-36.44,58.49 -36.66,58.58 -37.62,60.33 -38.21,63.23 -38.40,67.30"/>
    </edge>
    <edge id=":J6_7" function="internal">
        <lane id=":J6_7_0" index="0" allow="bicycle" speed="5.02" length="4.95" width="1.00" shape="-37.30,32.70 -37.17,34.45 -36.80,35.70 -36.17,36.45 -35.30,36.70"/>
        <lane id=":J6_7_1" index="1" allow="bus" speed="6.02" length="7.58" shape="-38.40,32.70 -38.21,35.37 -37.62,37.27 -36.66,38.42 -35.30,38.80"/>
        <lane id=":J6_7_2" index="2" disallow="pedestrian" speed="6.97" length="10.51" shape="-38.40,32.70 -38.21,36.77 -37.62,39.67 -36.66,41.42 -35.30,42.00"/>
    </edge>
    <edge id=":J6_10" function="internal">
        <lane id=":J6_10_0" index="0" disallow="pedestrian" speed="13.89" length="34.60" shape="-38.40,32.70 -38.40,67.30"/>
    </edge>
    <edge id=":J6_11" function="internal">
        <lane id=":J6_11_0" index="0" disallow="pedestrian" speed="10.01" length="22.79" shape="-38.40,32.70 -38.59,42.37 -39.17,49.28 -40.14,53.42 -41.50,54.80"/>
        <lane id=":J6_11_1" index="1" disallow="pedestrian" speed="9.33" length="19.68" shape="-38.40,32.70 -38.59,40.97 -39.17,46.87 -40.14,50.42 -41.50,51.60"/>
    </edge>
    <edge id=":J6_13" function="internal">
        <lane id=":J6_13_0" index="0" allow="bicycle" speed="13.89" length="6.81" width="1.00" shape="-41.50,36.70 -35.30,36.70"/>
        <lane id=":J6_13_1" index="1" allow="bus" speed="13.89" length="6.81" shape="-41.50,38.80 -35.30,38.80"/>
        <lane id=":J6_13_2" index="2" allow="bus" speed="13.89" length="6.81" shape="-41.50,38.80 -39.55,39.30 -38.40,40.40 -37.25,41.50 -35.30,42.00"/>
        <lane id=":J6_13_3" index="3" disallow="pedestrian" speed="13.89" length="6.81" shape="-41.50,42.00 -39.55,42.50 -38.40,43.60 -37.25,44.70 -35.30,45.20"/>
        <lane id=":J6_13_4" index="4" disallow="pedestrian" speed="13.89" length="6.81" shape="-41.50,45.20 -39.55,45.70 -38.40,46.80 -37.25,47.90 -35.30,48.40"/>
    </edge>
    <edge id=":J6_18" function="internal">
        <lane id=":J6_18_0" index="0" disallow="pedestrian" speed="9.33" length="1.40" shape="-41.50,48.40 -40.44,49.32"/>
    </edge>
    <edge id=":J6_20" function="internal">
        <lane id=":J6_20_0" index="0" disallow="pedestrian" speed="9.33" length="18.28" shape="-40.44,49.32 -40.14,49.58 -39.18,53.12 -38.59,59.03 -38.40,67.30"/>
    </edge>
    <edge id=":J7_0" function="internal">
        <lane id=":J7_0_0" index="0" allow="bicycle" speed="5.02" length="4.95" width="1.00" shape="17.30,67.30 17.18,65.55 16.80,64.30 16.17,63.55 15.30,63.30"/>
        <lane id=":J7_0_1" index="1" allow="bus" speed="6.02" length="7.58" shape="18.40,67.30 18.21,64.63 17.62,62.72 16.66,61.58 15.30,61.20"/>
        <lane id=":J7_0_2" index="2" disallow="pedestrian" speed="6.97" length="10.51" shape="18.40,67.30 18.21,63.23 17.62,60.33 16.66,58.58 15.30,58.00"/>
    </edge>
    <edge id=":J7_3" function="internal">
        <lane id=":J7_3_0" index="0" disallow="pedestrian" speed="13.89" length="34.60" shape="18.40,67.30 18.40,32.70"/>
    </edge>
    <edge id=":J7_4" function="internal">
        <lane id=":J7_4_0" index="0" disallow="pedestrian" speed="10.01" length="22.79" shape="18.40,67.30 18.59,57.63 19.17,50.72 20.14,46.58 21.50,45.20"/>
        <lane id=":J7_4_1" index="1" disallow="pedestrian" speed="9.33" length="19.68" shape="18.40,67.30 18.59,59.03 19.17,53.12 20.14,49.58 21.50,48.40"/>
    </edge>
    <edge id=":J7_6" function="internal">
        <lane id=":J7_6_0" index="0" allow="bicycle" speed="13.89" length="6.81" width="1.00" shape="21.50,63.30 15.30,63.30"/>
        <lane id=":J7_6_1" index="1" allow="bus" speed="13.89" length="6.81" shape="21.50,61.20 15.30,61.20"/>
        <lane id=":J7_6_2" index="2" allow="bus" speed="13.89" length="6.81" shape="21.50,61.20 19.55,60.70 18.40,59.60 17.25,58.50 15.30,58.00"/>
        <lane id=":J7_6_3" index="3" disallow="pedestrian" speed="13.89" length="6.81" shape="21.50,58.00 19.55,57.50 18.40,56.40 17.25,55.30 15.30,54.80"/>
        <lane id=":J7_6_4" index="4" disallow="pedestrian" speed="13.89" length="6.81" shape="21.50,54.80 19.55,54.30 18.40,53.20 17.25,52.10 15.30,51.60"/>
    </edge>
    <edge id=":J7_11" function="internal">
        <lane id=":J7_11_0" index="0" disallow="pedestrian" speed="9.33" length="1.40" shape="21.50,51.60 20.44,50.68"/>
    </edge>
    <edge id=":J7_19" function="internal">
        <lane id=":J7_19_0" index="0" disallow="pedestrian" speed="9.33" length="18.28" shape="20.44,50.68 20.14,50.42 19.18,46.88 18.59,40.97 18.40,32.70"/>
    </edge>
    <edge id=":J7_12" function="internal">
        <lane id=":J7_12_0" index="0" allow="bicycle" speed="4.71" length="4.95" width="1.00" shape="15.30,36.70 16.18,36.45 16.80,35.70 17.18,34.45 17.30,32.70"/>
    </edge>
    <edge id=":J7_13" function="internal">
        <lane id=":J7_13_0" index="0" allow="bicycle" speed="13.89" length="6.54" width="1.00" shape="15.30,36.70 21.50,36.70"/>
        <lane id=":J7_13_1" index="1" allow="bus" speed="13.89" length="6.54" shape="15.30,38.80 21.50,38.80"/>
        <lane id=":J7_13_2" index="2" allow="bus" speed="13.89" length="6.54" shape="15.30,38.80 17.25,39.30 18.40,40.40 19.55,41.50 21.50,42.00"/>
    </edge>
    <edge id=":J7_16" function="internal">
        <lane id=":J7_16_0" index="0" disallow="pedestrian" speed="6.97" length="1.24" shape="15.30,42.00 16.44,41.51"/>
    </edge>
    <edge id=":J7_17" function="internal">
        <lane id=":J7_17_0" index="0" disallow="pedestrian" speed="13.89" length="6.20" shape="15.30,45.20 21.50,45.20"/>
        <lane id=":J7_17_1" index="1" disallow="pedestrian" speed="13.89" length="6.20" shape="15.30,48.40 21.50,48.40"/>
    </edge>
    <edge id=":J7_20" function="internal">
        <lane id=":J7_20_0" index="0" disallow="pedestrian" speed="6.97" length="9.26" shape="16.44,41.51 16.66,41.42 17.62,39.67 18.21,36.77 18.40,32.70"/>
    </edge>
    <edge id=":J8_0" function="internal">
        <lane id=":J8_0_0" index="0" allow="bicycle" speed="5.02" length="4.95" width="1.00" shape="74.10,67.30 73.97,65.55 73.60,64.30 72.98,63.55 72.10,63.30"/>
        <lane id=":J8_0_1" index="1" allow="bus" speed="6.02" length="7.58" shape="75.20,67.30 75.01,64.63 74.43,62.73 73.46,61.58 72.10,61.20"/>
        <lane id=":J8_0_2" index="2" disallow="pedestrian" speed="7.59" length="12.67" shape="78.40,67.30 78.01,63.23 76.83,60.33 74.86,58.58 72.10,58.00"/>
        <lane id=":J8_0_3" index="3" disallow="pedestrian" speed="8.34" length="15.49" shape="78.40,67.30 78.01,61.83 76.83,57.93 74.86,55.58 72.10,54.80"/>
        <lane id=":J8_0_4" index="4" disallow="pedestrian" speed="9.04" length="18.39" shape="78.40,67.30 78.01,60.43 76.83,55.52 74.86,52.58 72.10,51.60"/>
    </edge>
    <edge id=":J8_5" function="internal">
        <lane id=":J8_5_0" index="0" speed="13.89" length="34.68" shape="78.40,67.30 77.90,59.08 76.80,50.00 75.70,40.92 75.20,32.70"/>
        <lane id=":J8_5_1" index="1" speed="13.89" length="34.68" shape="78.40,67.30 78.40,32.70"/>
    </edge>
    <edge id=":J8_7" function="internal">
        <lane id=":J8_7_0" index="0" allow="bicycle" speed="4.71" length="4.95" width="1.00" shape="72.10,36.70 72.97,36.45 73.60,35.70 73.98,34.45 74.10,32.70"/>
        <lane id=":J8_7_1" index="1" allow="bus" speed="6.02" length="7.58" shape="72.10,38.80 73.46,38.42 74.42,37.27 75.01,35.37 75.20,32.70"/>
        <lane id=":J8_7_2" index="2" disallow="pedestrian" speed="6.97" length="10.51" shape="72.10,42.00 73.46,41.42 74.42,39.67 75.01,36.77 75.20,32.70"/>
        <lane id=":J8_7_3" index="3" disallow="pedestrian" speed="8.34" length="15.49" shape="72.10,45.20 74.86,44.42 76.82,42.08 78.01,38.17 78.40,32.70"/>
    </edge>

    <edge id="-E3" from="J6" to="J5" priority="-1">
        <lane id="-E3_0" index="0" allow="pedestrian" speed="13.89" length="50.60" width="2.00" shape="-41.50,64.80 -92.10,64.80"/>
        <lane id="-E3_1" index="1" allow="bicycle" speed="13.89" length="50.60" width="1.00" shape="-41.50,63.30 -92.10,63.30"/>
        <lane id="-E3_2" index="2" allow="bus" speed="13.89" length="50.60" shape="-41.50,61.20 -92.10,61.20"/>
        <lane id="-E3_3" index="3" disallow="pedestrian" speed="13.89" length="50.60" shape="-41.50,58.00 -92.10,58.00"/>
        <lane id="-E3_4" index="4" disallow="pedestrian" speed="13.89" length="50.60" shape="-41.50,54.80 -92.10,54.80"/>
        <lane id="-E3_5" index="5" disallow="pedestrian" speed="13.89" length="50.60" shape="-41.50,51.60 -92.10,51.60"/>
    </edge>
    <edge id="-E4" from="J7" to="J6" priority="-1">
        <lane id="-E4_0" index="0" allow="pedestrian" speed="13.89" length="50.60" width="2.00" shape="15.30,64.80 -35.30,64.80"/>
        <lane id="-E4_1" index="1" allow="bicycle" speed="13.89" length="50.60" width="1.00" shape="15.30,63.30 -35.30,63.30"/>
        <lane id="-E4_2" index="2" allow="bus" speed="13.89" length="50.60" shape="15.30,61.20 -35.30,61.20"/>
        <lane id="-E4_3" index="3" disallow="pedestrian" speed="13.89" length="50.60" shape="15.30,58.00 -35.30,58.00"/>
        <lane id="-E4_4" index="4" disallow="pedestrian" speed="13.89" length="50.60" shape="15.30,54.80 -35.30,54.80"/>
        <lane id="-E4_5" index="5" disallow="pedestrian" speed="13.89" length="50.60" shape="15.30,51.60 -35.30,51.60"/>
    </edge>
    <edge id="-E5" from="J8" to="J7" priority="-1">
        <lane id="-E5_0" index="0" allow="pedestrian" speed="13.89" length="50.60" width="2.00" shape="72.10,64.80 21.50,64.80"/>
        <lane id="-E5_1" index="1" allow="bicycle" speed="13.89" length="50.60" width="1.00" shape="72.10,63.30 21.50,63.30"/>
        <lane id="-E5_2" index="2" allow="bus" speed="13.89" length="50.60" shape="72.10,61.20 21.50,61.20"/>
        <lane id="-E5_3" index="3" disallow="pedestrian" speed="13.89" length="50.60" shape="72.10,58.00 21.50,58.00"/>
        <lane id="-E5_4" index="4" disallow="pedestrian" speed="13.89" length="50.60" shape="72.10,54.80 21.50,54.80"/>
        <lane id="-E5_5" index="5" disallow="pedestrian" speed="13.89" length="50.60" shape="72.10,51.60 21.50,51.60"/>
    </edge>
    <edge id="E0" from="J0" to="J1" priority="-1">
        <lane id="E0_0" index="0" speed="13.89" length="49.60" shape="-93.60,95.20 -44.00,95.20"/>
        <lane id="E0_1" index="1" speed="13.89" length="49.60" shape="-93.60,98.40 -44.00,98.40"/>
    </edge>
    <edge id="E1" from="J1" to="J2" priority="-1">
        <lane id="E1_0" index="0" speed="13.89" length="45.60" shape="-32.80,92.00 12.80,92.00"/>
        <lane id="E1_1" index="1" speed="13.89" length="45.60" shape="-32.80,95.20 12.80,95.20"/>
        <lane id="E1_2" index="2" speed="13.89" length="45.60" shape="-32.80,98.40 12.80,98.40"/>
    </edge>
    <edge id="E10" from="J14" to="J15" priority="-1">
        <lane id="E10_0" index="0" speed="13.89" length="49.60" shape="-44.00,4.80 -93.60,4.80"/>
        <lane id="E10_1" index="1" speed="13.89" length="49.60" shape="-44.00,1.60 -93.60,1.60"/>
    </edge>
    <edge id="E11" from="J15" to="J5" priority="-1">
        <lane id="E11_0" index="0" speed="13.89" length="26.30" shape="-95.20,6.40 -95.20,32.70"/>
        <lane id="E11_1" index="1" speed="13.89" length="26.30" shape="-98.40,6.40 -98.40,32.70"/>
    </edge>
    <edge id="E12" from="J5" to="J0" priority="-1">
        <lane id="E12_0" index="0" speed="13.89" length="26.30" shape="-95.20,67.30 -95.20,93.60"/>
        <lane id="E12_1" index="1" speed="13.89" length="26.30" shape="-98.40,67.30 -98.40,93.60"/>
    </edge>
    <edge id="E13" from="J14" to="J6" priority="-1">
        <lane id="E13_0" index="0" speed="13.89" length="19.10" shape="-38.40,13.60 -38.40,32.70"/>
    </edge>
    <edge id="E14" from="J6" to="J1" priority="-1">
        <lane id="E14_0" index="0" disallow="pedestrian" speed="13.89" length="19.10" shape="-38.40,67.30 -38.40,86.40"/>
    </edge>
    <edge id="E15" from="J2" to="J7" priority="-1">
        <lane id="E15_0" index="0" disallow="pedestrian" speed="13.89" length="19.10" shape="18.40,86.40 18.40,67.30"/>
    </edge>
    <edge id="E16" from="J7" to="J13" priority="-1">
        <lane id="E16_0" index="0" speed="13.89" length="19.10" shape="18.40,32.70 18.40,13.60"/>
    </edge>
    <edge id="E17" from="J3" to="J8" priority="-1">
        <lane id="E17_0" index="0" speed="13.89" length="26.30" shape="75.20,93.60 75.20,67.30"/>
        <lane id="E17_1" index="1" speed="13.89" length="26.30" shape="78.40,93.60 78.40,67.30"/>
    </edge>
    <edge id="E18" from="J8" to="J12" priority="-1">
        <lane id="E18_0" index="0" speed="13.89" length="26.30" shape="75.20,32.70 75.20,6.40"/>
        <lane id="E18_1" index="1" speed="13.89" length="26.30" shape="78.40,32.70 78.40,6.40"/>
    </edge>
    <edge id="E2" from="J2" to="J3" priority="-1">
        <lane id="E2_0" index="0" speed="13.89" length="49.60" shape="24.00,95.20 73.60,95.20"/>
        <lane id="E2_1" index="1" speed="13.89" length="49.60" shape="24.00,98.40 73.60,98.40"/>
    </edge>
    <edge id="E3" from="J5" to="J6" priority="-1">
        <lane id="E3_0" index="0" allow="pedestrian" speed="13.89" length="50.60" width="2.00" shape="-92.10,35.20 -41.50,35.20"/>
        <lane id="E3_1" index="1" allow="bicycle" speed="13.89" length="50.60" width="1.00" shape="-92.10,36.70 -41.50,36.70"/>
        <lane id="E3_2" index="2" allow="bus" speed="13.89" length="50.60" shape="-92.10,38.80 -41.50,38.80"/>
        <lane id="E3_3" index="3" disallow="pedestrian" speed="13.89" length="50.60" shape="-92.10,42.00 -41.50,42.00"/>
        <lane id="E3_4" index="4" disallow="pedestrian" speed="13.89" length="50.60" shape="-92.10,45.20 -41.50,45.20"/>
        <lane id="E3_5" index="5" disallow="pedestrian" speed="13.89" length="50.60" shape="-92.10,48.40 -41.50,48.40"/>
    </edge>
    <edge id="E4" from="J6" to="J7" priority="-1">
        <lane id="E4_0" index="0" allow="pedestrian" speed="13.89" length="50.60" width="2.00" shape="-35.30,35.20 15.30,35.20"/>
        <lane id="E4_1" index="1" allow="bicycle" speed="13.89" length="50.60" width="1.00" shape="-35.30,36.70 15.30,36.70"/>
        <lane id="E4_2" index="2" allow="bus" speed="13.89" length="50.60" shape="-35.30,38.80 15.30,38.80"/>
        <lane id="E4_3" index="3" disallow="pedestrian" speed="13.89" length="50.60" shape="-35.30,42.00 15.30,42.00"/>
        <lane id="E4_4" index="4" disallow="pedestrian" speed="13.89" length="50.60" shape="-35.30,45.20 15.30,45.20"/>
        <lane id="E4_5" index="5" disallow="pedestrian" speed="13.89" length="50.60" shape="-35.30,48.40 15.30,48.40"/>
    </edge>
    <edge id="E5" from="J7" to="J8" priority="-1">
        <lane id="E5_0" index="0" allow="pedestrian" speed="13.89" length="50.60" width="2.00" shape="21.50,35.20 72.10,35.20"/>
        <lane id="E5_1" index="1" allow="bicycle" speed="13.89" length="50.60" width="1.00" shape="21.50,36.70 72.10,36.70"/>
        <lane id="E5_2" index="2" allow="bus" speed="13.89" length="50.60" shape="21.50,38.80 72.10,38.80"/>
        <lane id="E5_3" index="3" disallow="pedestrian" speed="13.89" length="50.60" shape="21.50,42.00 72.10,42.00"/>
        <lane id="E5_4" index="4" disallow="pedestrian" speed="13.89" length="50.60" shape="21.50,45.20 72.10,45.20"/>
        <lane id="E5_5" index="5" disallow="pedestrian" speed="13.89" length="50.60" shape="21.50,48.40 72.10,48.40"/>
    </edge>
    <edge id="E8" from="J12" to="J13" priority="-1">
        <lane id="E8_0" index="0" speed="13.89" length="49.60" shape="73.60,4.80 24.00,4.80"/>
        <lane id="E8_1" index="1" speed="13.89" length="49.60" shape="73.60,1.60 24.00,1.60"/>
    </edge>
    <edge id="E9" from="J13" to="J14" priority="-1">
        <lane id="E9_0" index="0" speed="13.89" length="45.60" shape="12.80,8.00 -32.80,8.00"/>
        <lane id="E9_1" index="1" speed="13.89" length="45.60" shape="12.80,4.80 -32.80,4.80"/>
        <lane id="E9_2" index="2" speed="13.89" length="45.60" shape="12.80,1.60 -32.80,1.60"/>
    </edge>

    <tlLogic id="J7" type="static" programID="0" offset="0">
        <phase duration="38" state="rrrrrrGGGGGgGGGGgGG"/>
        <phase duration="3"  state="rrrrrrGGGGGgyyyyyyy"/>
        <phase duration="6"  state="rrrrrrGGGGGGrrrrrrr"/>
        <phase duration="3"  state="rrrrrryyyyyyrrrrrrr"/>
        <phase duration="37" state="GGGGGGrrrrrrrrrrrrr"/>
        <phase duration="3"  state="yyyyyyrrrrrrrrrrrrr"/>
    </tlLogic>

    <junction id="J0" type="priority" x="-100.00" y="100.00" incLanes="E12_0 E12_1" intLanes=":J0_0_0 :J0_0_1" shape="-93.60,100.00 -93.60,93.60 -100.00,93.60 -99.29,97.16 -98.40,98.40 -97.16,99.29 -95.56,99.82">
        <request index="0" response="00" foes="00" cont="0"/>
        <request index="1" response="00" foes="00" cont="0"/>
    </junction>
    <junction id="J1" type="priority" x="-40.00" y="100.00" incLanes="E14_0 E0_0 E0_1" intLanes=":J1_0_0 :J1_1_0 :J1_1_1" shape="-32.80,100.00 -32.80,90.40 -35.02,89.96 -35.80,89.40 -36.36,88.62 -36.69,87.62 -36.80,86.40 -40.00,86.40 -40.11,88.60 -40.44,90.40 -41.00,91.80 -41.78,92.80 -42.78,93.40 -44.00,93.60 -44.00,100.00">
        <request index="0" response="000" foes="000" cont="0"/>
        <request index="1" response="000" foes="000" cont="0"/>
        <request index="2" response="000" foes="000" cont="0"/>
    </junction>
    <junction id="J12" type="priority" x="80.00" y="0.00" incLanes="E18_0 E18_1" intLanes=":J12_0_0 :J12_0_1" shape="73.60,6.40 80.00,6.40 79.29,2.84 78.40,1.60 77.16,0.71 75.56,0.18 73.60,0.00">
        <request index="0" response="00" foes="00" cont="0"/>
        <request index="1" response="00" foes="00" cont="0"/>
    </junction>
    <junction id="J13" type="priority" x="20.00" y="0.00" incLanes="E16_0 E8_0 E8_1" intLanes=":J13_0_0 :J13_1_0 :J13_1_1" shape="16.80,13.60 20.00,13.60 20.11,11.40 20.44,9.60 21.00,8.20 21.78,7.20 22.78,6.60 24.00,6.40 24.00,0.00 12.80,0.00 12.80,9.60 15.02,10.04 15.80,10.60 16.36,11.38 16.69,12.38">
        <request index="0" response="000" foes="000" cont="0"/>
        <request index="1" response="000" foes="000" cont="0"/>
        <request index="2" response="000" foes="000" cont="0"/>
    </junction>
    <junction id="J14" type="priority" x="-40.00" y="0.00" incLanes="E9_0 E9_1 E9_2" intLanes=":J14_0_0 :J14_1_0 :J14_1_1" shape="-40.00,13.60 -36.80,13.60 -36.36,11.38 -35.80,10.60 -35.02,10.04 -34.02,9.71 -32.80,9.60 -32.80,0.00 -44.00,0.00 -44.00,6.40 -41.78,7.20 -41.00,8.20 -40.44,9.60 -40.11,11.40">
        <request index="0" response="000" foes="000" cont="0"/>
        <request index="1" response="000" foes="000" cont="0"/>
        <request index="2" response="000" foes="000" cont="0"/>
    </junction>
    <junction id="J15" type="priority" x="-100.00" y="0.00" incLanes="E10_0 E10_1" intLanes=":J15_0_0 :J15_0_1" shape="-100.00,6.40 -93.60,6.40 -93.60,0.00 -97.16,0.71 -98.40,1.60 -99.29,2.84 -99.82,4.44">
        <request index="0" response="00" foes="00" cont="0"/>
        <request index="1" response="00" foes="00" cont="0"/>
    </junction>
    <junction id="J2" type="priority" x="20.00" y="100.00" incLanes="E1_0 E1_1 E1_2" intLanes=":J2_0_0 :J2_1_0 :J2_1_1" shape="24.00,100.00 24.00,93.60 21.78,92.80 21.00,91.80 20.44,90.40 20.11,88.60 20.00,86.40 16.80,86.40 16.36,88.62 15.80,89.40 15.02,89.96 14.02,90.29 12.80,90.40 12.80,100.00">
        <request index="0" response="000" foes="000" cont="0"/>
        <request index="1" response="000" foes="000" cont="0"/>
        <request index="2" response="000" foes="000" cont="0"/>
    </junction>
    <junction id="J3" type="priority" x="80.00" y="100.00" incLanes="E2_0 E2_1" intLanes=":J3_0_0 :J3_0_1" shape="80.00,93.60 73.60,93.60 73.60,100.00 77.16,99.29 78.40,98.40 79.29,97.16 79.82,95.56">
        <request index="0" response="00" foes="00" cont="0"/>
        <request index="1" response="00" foes="00" cont="0"/>
    </junction>
    <junction id="J5" type="priority" x="-100.00" y="50.00" incLanes="-E3_0 -E3_1 -E3_2 -E3_3 -E3_4 -E3_5 E11_0 E11_1" intLanes=":J5_0_0 :J5_0_1 :J5_0_2 :J5_0_3 :J5_4_0 :J5_4_1 :J5_4_2 :J5_4_3 :J5_4_4 :J5_9_0 :J5_9_1" shape="-100.00,67.30 -93.60,67.30 -93.43,66.47 -93.22,66.17 -92.93,65.97 -92.56,65.84 -92.10,65.80 -92.10,34.20 -92.93,34.03 -93.23,33.83 -93.43,33.53 -93.56,33.16 -93.60,32.70 -100.00,32.70">
        <request index="0"  response="00000000000" foes="11000000110" cont="0"/>
        <request index="1"  response="00000000001" foes="11000000101" cont="0"/>
        <request index="2"  response="00000000011" foes="11000000011" cont="0"/>
        <request index="3"  response="00000000000" foes="11000000000" cont="0"/>
        <request index="4"  response="00000000000" foes="00000000000" cont="0"/>
        <request index="5"  response="00000000000" foes="00000000000" cont="0"/>
        <request index="6"  response="00000000000" foes="00000000000" cont="0"/>
        <request index="7"  response="00000000000" foes="00000000000" cont="0"/>
        <request index="8"  response="00000000000" foes="00000000000" cont="0"/>
        <request index="9"  response="00000001111" foes="00000001111" cont="0"/>
        <request index="10" response="00000001110" foes="00000001110" cont="0"/>
    </junction>
    <junction id="J6" type="priority" x="-40.00" y="50.00" incLanes="-E4_0 -E4_1 -E4_2 -E4_3 -E4_4 -E4_5 E13_0 E3_0 E3_1 E3_2 E3_3 E3_4 E3_5" intLanes=":J6_0_0 :J6_1_0 :J6_1_1 :J6_1_2 :J6_19_0 :J6_5_0 :J6_5_1 :J6_7_0 :J6_7_1 :J6_7_2 :J6_10_0 :J6_11_0 :J6_11_1 :J6_13_0 :J6_13_1 :J6_13_2 :J6_13_3 :J6_13_4 :J6_20_0" shape="-40.00,67.30 -36.80,67.30 -36.63,66.47 -36.42,66.17 -36.13,65.97 -35.76,65.84 -35.30,65.80 -35.30,34.20 -36.13,34.03 -36.43,33.83 -36.63,33.53 -36.76,33.16 -36.80,32.70 -40.00,32.70 -40.17,33.53 -40.38,33.82 -40.67,34.03 -41.04,34.16 -41.50,34.20 -41.50,65.80 -40.67,65.97 -40.38,66.17 -40.17,66.47 -40.04,66.84">
        <request index="0"  response="0000000000000000000" foes="1000000010000010000" cont="0"/>
        <request index="1"  response="0000000000000000000" foes="1000000010000010000" cont="0"/>
        <request index="2"  response="0000000000000000000" foes="1000000010000010000" cont="0"/>
        <request index="3"  response="0000000000000000000" foes="1000001110000010000" cont="0"/>
        <request index="4"  response="0000000000000001111" foes="1000000010000001111" cont="1"/>