<configuration>
    <input>
        <net-file value="SumoRed.net.xml"/>
        <route-files value="SumoRed.rou.xml"/>
    </input>

    <processing>
        <lateral-resolution value="1.0"/>
    </processing>

    <report>
        <verbose value="true"/>
        <no-step-log value="true"/>
    </report>
</configuration>
