<routes>
    <vType id="bus" length="15" maxSpeed="30" accel="1.2" decel="2.5" sigma="0.1" speedDev="0.1" vClass="bus"/>
    <vType id="bike" length="1.8" width="0.8" maxSpeed="7.5" accel="0.8" decel="1.5" sigma="0.5" speedDev="0.5" vClass="bicycle"/>
    <vType id="pedestrian" length="0.3" width="0.5" maxSpeed="2.0" accel="0.2" decel="1.5" sigma="0.2" speedDev="0.2" vClass="pedestrian"/>

    <flow id="bus" type="bus" from="-E4" to="-E3" begin="0" end="0" number="5" departPos="last"/>
    <flow id="bike" type="bike" from="-E5" to="-E3" begin="0" end="0" number="20" departPos="last"/>

    <personFlow id="pedestrian" type="pedestrian" begin="0" end="0" number="100" departPos="-30">
       <walk from="-E5" to="-E3" arrivalPos="-0.1"/>
    </personFlow>

</routes>
