<?xml version="1.0" encoding="UTF-8"?>

<!-- generated on 2025-06-19 10:29:29 by Eclipse SUMO netedit Version 1.23.1
<neteditConfiguration xmlns:xsi="http://www.w3.org/2001/XMLSchema-instance" xsi:noNamespaceSchemaLocation="http://sumo.dlr.de/xsd/neteditConfiguration.xsd">

    <input>
        <sumo-net-file value="D:\RedPrueba.net.xml"/>
    </input>

    <output>
        <output-file value="D:\RedPrueba.net.xml"/>
    </output>

    <processing>
        <offset.disable-normalization value="true"/>
    </processing>

    <junctions>
        <no-turnarounds value="true"/>
    </junctions>

    <netedit>
        <new-network value="false"/>
    </netedit>

</neteditConfiguration>
-->

<net version="1.20" junctionCornerDetail="5" limitTurnSpeed="5.50" xmlns:xsi="http://www.w3.org/2001/XMLSchema-instance" xsi:noNamespaceSchemaLocation="http://sumo.dlr.de/xsd/net_file.xsd">

    <location netOffset="0.00,0.00" convBoundary="-62.41,-38.91,55.83,9.52" origBoundary="10000000000.00,10000000000.00,-10000000000.00,-10000000000.00" projParameter="!"/>

    <edge id=":J1_0" function="internal">
        <lane id=":J1_0_0" index="0" speed="6.54" length="8.90" shape="13.66,7.42 16.04,7.07 17.77,6.04 18.84,4.32 19.26,1.91"/>
    </edge>
    <edge id=":J1_1" function="internal">
        <lane id=":J1_1_0" index="0" speed="13.89" length="10.91" shape="13.66,7.42 24.57,7.48"/>
    </edge>
    <edge id=":J3_0" function="internal">
        <lane id=":J3_0_0" index="0" speed="3.91" length="2.54" shape="50.97,7.88 51.65,7.79 52.15,7.50 52.47,7.02 52.59,6.34"/>
    </edge>
    <edge id=":J4_0" function="internal">
        <lane id=":J4_0_0" index="0" speed="3.90" length="2.62" shape="54.11,-35.14 54.03,-35.86 53.75,-36.37 53.25,-36.69 52.54,-36.80"/>
    </edge>

    <edge id="E0" from="J0" to="J1" priority="-1">
        <lane id="E0_0" index="0" speed="13.89" length="76.06" shape="-62.40,7.36 13.66,7.42"/>
    </edge>
    <edge id="E1" from="J1" to="J2" priority="-1">
        <lane id="E1_0" index="0" speed="13.89" length="36.20" shape="19.26,1.91 20.54,-34.27"/>
    </edge>
    <edge id="E2" from="J1" to="J3" priority="-1">
        <lane id="E2_0" index="0" speed="13.89" length="26.40" shape="24.57,7.48 50.97,7.88"/>
    </edge>
    <edge id="E3" from="J3" to="J4" priority="-1">
        <lane id="E3_0" index="0" speed="13.89" length="41.51" shape="52.59,6.34 54.11,-35.14"/>
    </edge>
    <edge id="E4" from="J4" to="J2" priority="-1">
        <lane id="E4_0" index="0" speed="13.89" length="28.82" shape="52.54,-36.80 23.72,-37.29"/>
    </edge>

    <junction id="J0" type="dead_end" x="-62.41" y="8.96" incLanes="" intLanes="" shape="-62.41,8.96 -62.40,5.76"/>
    <junction id="J1" type="priority" x="20.61" y="9.02" incLanes="E0_0" intLanes=":J1_0_0 :J1_1_0" shape="24.54,9.08 24.59,5.88 22.46,5.42 21.73,4.87 21.22,4.11 20.93,3.14 20.86,1.96 17.67,1.85 17.16,4.05 16.59,4.83 15.82,5.38 14.85,5.71 13.66,5.82 13.66,9.02">
        <request index="0" response="00" foes="00" cont="0"/>
        <request index="1" response="00" foes="00" cont="0"/>
    </junction>
    <junction id="J2" type="dead_end" x="22.31" y="-38.91" incLanes="E4_0 E1_0" intLanes="" shape="23.69,-35.69 23.75,-38.89 21.15,-38.41 20.22,-37.78 19.55,-36.89 19.12,-35.74 18.94,-34.33 22.14,-34.21 22.34,-35.04 22.55,-35.33 22.85,-35.53 23.23,-35.65"/>
    <junction id="J3" type="priority" x="54.07" y="9.52" incLanes="E2_0" intLanes=":J3_0_0" shape="54.19,6.39 50.99,6.28 50.94,9.48 52.69,9.16 53.32,8.73 53.78,8.13 54.07,7.35">
        <request index="0" response="0" foes="0" cont="0"/>
    </junction>
    <junction id="J4" type="priority" x="55.83" y="-38.35" incLanes="E3_0" intLanes=":J4_0_0" shape="52.56,-38.40 52.51,-35.20 55.71,-35.08 55.41,-36.90 54.98,-37.54 54.36,-38.01 53.56,-38.29">
        <request index="0" response="0" foes="0" cont="0"/>
    </junction>

    <connection from="E0" to="E1" fromLane="0" toLane="0" via=":J1_0_0" dir="r" state="M"/>
    <connection from="E0" to="E2" fromLane="0" toLane="0" via=":J1_1_0" dir="s" state="M"/>
    <connection from="E2" to="E3" fromLane="0" toLane="0" via=":J3_0_0" dir="r" state="M"/>
    <connection from="E3" to="E4" fromLane="0" toLane="0" via=":J4_0_0" dir="r" state="M"/>

    <connection from=":J1_0" to="E1" fromLane="0" toLane="0" dir="r" state="M"/>
    <connection from=":J1_1" to="E2" fromLane="0" toLane="0" dir="s" state="M"/>
    <connection from=":J3_0" to="E3" fromLane="0" toLane="0" dir="r" state="M"/>
    <connection from=":J4_0" to="E4" fromLane="0" toLane="0" dir="r" state="M"/>

</net>
