<?xml version="1.0" encoding="UTF-8"?>

<!-- generated on 2025-06-22 19:55:53 by Eclipse SUMO netedit Version 1.23.1
<neteditConfiguration xmlns:xsi="http://www.w3.org/2001/XMLSchema-instance" xsi:noNamespaceSchemaLocation="http://sumo.dlr.de/xsd/neteditConfiguration.xsd">

    <input>
        <sumo-net-file value="D:\SumoRed.net.xml"/>
    </input>

    <output>
        <output-file value="D:\SumoRed.net.xml"/>
    </output>

    <processing>
        <offset.disable-normalization value="true"/>
    </processing>

    <junctions>
        <no-turnarounds value="true"/>
    </junctions>

    <netedit>
        <new-network value="false"/>
    </netedit>

</neteditConfiguration>
-->

<net version="1.20" junctionCornerDetail="5" limitTurnSpeed="5.50" xmlns:xsi="http://www.w3.org/2001/XMLSchema-instance" xsi:noNamespaceSchemaLocation="http://sumo.dlr.de/xsd/net_file.xsd">

    <location netOffset="0.00,0.00" convBoundary="-78.51,-6.83,63.22,41.98" origBoundary="10000000000.00,10000000000.00,-10000000000.00,-10000000000.00" projParameter="!"/>

    <edge id=":J1_0" function="internal">
        <lane id=":J1_0_0" index="0" speed="6.51" length="9.01" shape="-42.92,40.30 -40.48,39.98 -38.72,38.95 -37.65,37.22 -37.26,34.78"/>
    </edge>
    <edge id=":J1_1" function="internal">
        <lane id=":J1_1_0" index="0" speed="13.89" length="11.17" shape="-42.92,40.30 -31.75,40.38"/>
    </edge>
    <edge id=":J2_0" function="internal">
        <lane id=":J2_0_0" index="0" speed="3.90" length="2.58" shape="-36.93,14.33 -37.02,13.62 -37.31,13.12 -37.80,12.81 -38.50,12.70"/>
    </edge>
    <edge id=":J4_0" function="internal">
        <lane id=":J4_0_0" index="0" speed="6.51" length="9.02" shape="-11.44,40.38 -9.00,40.03 -7.25,38.98 -6.20,37.23 -5.84,34.79"/>
    </edge>
    <edge id=":J4_1" function="internal">
        <lane id=":J4_1_0" index="0" speed="13.89" length="11.18" shape="-11.44,40.38 -0.26,40.37"/>
    </edge>
    <edge id=":J5_0" function="internal">
        <lane id=":J5_0_0" index="0" speed="3.90" length="2.56" shape="-5.74,-2.85 -5.84,-3.54 -6.14,-4.04 -6.63,-4.34 -7.33,-4.45"/>
    </edge>
    <edge id=":J7_0" function="internal">
        <lane id=":J7_0_0" index="0" speed="3.90" length="2.58" shape="29.56,40.27 30.26,40.16 30.76,39.86 31.06,39.36 31.16,38.66"/>
    </edge>
    <edge id=":J8_0" function="internal">
        <lane id=":J8_0_0" index="0" speed="3.90" length="2.61" shape="30.98,-6.76 31.08,-7.47 31.38,-7.97 31.89,-8.27 32.60,-8.37"/>
    </edge>

    <edge id="E0" from="J0" to="J1" priority="-1">
        <lane id="E0_0" index="0" speed="13.89" length="34.32" shape="-77.24,39.94 -42.92,40.30"/>
    </edge>
    <edge id="E1" from="J1" to="J2" priority="-1">
        <lane id="E1_0" index="0" speed="13.89" length="20.45" shape="-37.26,34.78 -36.93,14.33"/>
    </edge>
    <edge id="E2" from="J2" to="J3" priority="-1">
        <lane id="E2_0" index="0" speed="13.89" length="38.60" shape="-38.50,12.70 -77.09,12.06"/>
    </edge>
    <edge id="E3" from="J1" to="J4" priority="-1">
        <lane id="E3_0" index="0" speed="13.89" length="20.31" shape="-31.75,40.38 -11.44,40.38"/>
    </edge>
    <edge id="E4" from="J4" to="J5" priority="-1">
        <lane id="E4_0" index="0" speed="13.89" length="37.63" shape="-5.84,34.79 -5.74,-2.85"/>
    </edge>
    <edge id="E5" from="J5" to="J6" priority="-1">
        <lane id="E5_0" index="0" speed="13.89" length="71.20" shape="-7.33,-4.45 -78.53,-5.23"/>
    </edge>
    <edge id="E6" from="J4" to="J7" priority="-1">
        <lane id="E6_0" index="0" speed="13.89" length="29.82" shape="-0.26,40.37 29.56,40.27"/>
    </edge>
    <edge id="E7" from="J7" to="J8" priority="-1">
        <lane id="E7_0" index="0" speed="13.89" length="45.42" shape="31.16,38.66 30.98,-6.76"/>
    </edge>
    <edge id="E8" from="J8" to="J9" priority="-1">
        <lane id="E8_0" index="0" speed="13.89" length="30.64" shape="32.60,-8.37 63.24,-8.05"/>
    </edge>

    <junction id="J0" type="dead_end" x="-77.26" y="41.54" incLanes="" intLanes="" shape="-77.26,41.54 -77.22,38.34"/>
    <junction id="J1" type="priority" x="-35.78" y="41.98" incLanes="E0_0" intLanes=":J1_0_0 :J1_1_0" shape="-31.75,41.98 -31.75,38.78 -33.95,38.34 -34.71,37.79 -35.25,37.01 -35.57,36.02 -35.66,34.80 -38.86,34.75 -39.34,36.97 -39.90,37.74 -40.69,38.28 -41.68,38.61 -42.90,38.70 -42.94,41.90">
        <request index="0" response="00" foes="00" cont="0"/>
        <request index="1" response="00" foes="00" cont="0"/>
    </junction>
    <junction id="J2" type="priority" x="-35.28" y="11.15" incLanes="E1_0" intLanes=":J2_0_0" shape="-38.47,11.10 -38.53,14.30 -35.33,14.35 -35.65,12.57 -36.09,11.94 -36.70,11.48 -37.50,11.21">
        <request index="0" response="0" foes="0" cont="0"/>
    </junction>
    <junction id="J3" type="dead_end" x="-77.07" y="10.46" incLanes="E2_0" intLanes="" shape="-77.12,13.66 -77.07,10.46"/>
    <junction id="J4" type="priority" x="-4.26" y="41.98" incLanes="E3_0" intLanes=":J4_0_0 :J4_1_0" shape="-0.25,41.97 -0.26,38.77 -2.48,38.33 -3.25,37.78 -3.80,37.01 -4.13,36.01 -4.24,34.79 -7.44,34.78 -7.89,37.00 -8.45,37.78 -9.22,38.34 -10.22,38.67 -11.44,38.78 -11.44,41.98">
        <request index="0" response="00" foes="00" cont="0"/>
        <request index="1" response="00" foes="00" cont="0"/>
    </junction>
    <junction id="J5" type="priority" x="-4.14" y="-6.02" incLanes="E4_0" intLanes=":J5_0_0" shape="-7.31,-6.05 -7.34,-2.85 -4.14,-2.84 -4.49,-4.61 -4.93,-5.23 -5.55,-5.68 -6.34,-5.95">
        <request index="0" response="0" foes="0" cont="0"/>
    </junction>
    <junction id="J6" type="dead_end" x="-78.51" y="-6.83" incLanes="E5_0" intLanes="" shape="-78.54,-3.63 -78.51,-6.83"/>
    <junction id="J7" type="priority" x="32.77" y="41.85" incLanes="E6_0" intLanes=":J7_0_0" shape="32.76,38.65 29.56,38.67 29.57,41.87 31.35,41.50 31.97,41.06 32.41,40.43 32.67,39.63">
        <request index="0" response="0" foes="0" cont="0"/>
    </junction>
    <junction id="J8" type="priority" x="32.58" y="-6.77" incLanes="E7_0" intLanes=":J8_0_0" shape="29.38,-6.75 32.58,-6.77 32.61,-9.97 30.81,-9.62 30.18,-9.18 29.74,-8.55 29.47,-7.75">
        <request index="0" response="0" foes="0" cont="0"/>
    </junction>
    <junction id="J9" type="dead_end" x="63.22" y="-6.45" incLanes="E8_0" intLanes="" shape="63.25,-9.65 63.22,-6.45"/>

    <connection from="E0" to="E1" fromLane="0" toLane="0" via=":J1_0_0" dir="r" state="M"/>
    <connection from="E0" to="E3" fromLane="0" toLane="0" via=":J1_1_0" dir="s" state="M"/>
    <connection from="E1" to="E2" fromLane="0" toLane="0" via=":J2_0_0" dir="r" state="M"/>
    <connection from="E3" to="E4" fromLane="0" toLane="0" via=":J4_0_0" dir="r" state="M"/>
    <connection from="E3" to="E6" fromLane="0" toLane="0" via=":J4_1_0" dir="s" state="M"/>
    <connection from="E4" to="E5" fromLane="0" toLane="0" via=":J5_0_0" dir="r" state="M"/>
    <connection from="E6" to="E7" fromLane="0" toLane="0" via=":J7_0_0" dir="r" state="M"/>
    <connection from="E7" to="E8" fromLane="0" toLane="0" via=":J8_0_0" dir="l" state="M"/>

    <connection from=":J1_0" to="E1" fromLane="0" toLane="0" dir="r" state="M"/>
    <connection from=":J1_1" to="E3" fromLane="0" toLane="0" dir="s" state="M"/>
    <connection from=":J2_0" to="E2" fromLane="0" toLane="0" dir="r" state="M"/>
    <connection from=":J4_0" to="E4" fromLane="0" toLane="0" dir="r" state="M"/>
    <connection from=":J4_1" to="E6" fromLane="0" toLane="0" dir="s" state="M"/>
    <connection from=":J5_0" to="E5" fromLane="0" toLane="0" dir="r" state="M"/>
    <connection from=":J7_0" to="E7" fromLane="0" toLane="0" dir="r" state="M"/>
    <connection from=":J8_0" to="E8" fromLane="0" toLane="0" dir="l" state="M"/>

</net>
