<?xml version="1.0" encoding="UTF-8"?>

<!-- generated on 2025-06-22 22:23:22 by Eclipse SUMO netedit Version 1.23.1
<neteditConfiguration xmlns:xsi="http://www.w3.org/2001/XMLSchema-instance" xsi:noNamespaceSchemaLocation="http://sumo.dlr.de/xsd/neteditConfiguration.xsd">

    <input>
        <sumo-net-file value="D:\TonyRed.xml"/>
    </input>

    <output>
        <output-file value="D:\TonyRed.xml"/>
    </output>

    <processing>
        <offset.disable-normalization value="true"/>
    </processing>

    <junctions>
        <no-turnarounds value="true"/>
    </junctions>

    <netedit>
        <new-network value="false"/>
    </netedit>

</neteditConfiguration>
-->

<net version="1.20" junctionCornerDetail="5" limitTurnSpeed="5.50" xmlns:xsi="http://www.w3.org/2001/XMLSchema-instance" xsi:noNamespaceSchemaLocation="http://sumo.dlr.de/xsd/net_file.xsd">

    <location netOffset="0.00,0.00" convBoundary="-78.88,-16.35,48.18,39.35" origBoundary="10000000000.00,10000000000.00,-10000000000.00,-10000000000.00" projParameter="!"/>

    <edge id=":J2_0" function="internal">
        <lane id=":J2_0_0" index="0" speed="13.89" length="11.21" shape="-34.95,40.93 -46.16,40.94"/>
    </edge>
    <edge id=":J2_1" function="internal">
        <lane id=":J2_1_0" index="0" speed="7.30" length="2.52" shape="-34.95,40.93 -37.41,40.39"/>
    </edge>
    <edge id=":J2_4" function="internal">
        <lane id=":J2_4_0" index="0" speed="7.30" length="9.21" shape="-37.41,40.39 -39.16,38.75 -40.21,36.00 -40.54,32.15"/>
    </edge>
    <edge id=":J2_2" function="internal">
        <lane id=":J2_2_0" index="0" speed="6.51" length="9.02" shape="-46.15,37.74 -43.71,37.39 -41.96,36.34 -40.90,34.60 -40.54,32.15"/>
    </edge>
    <edge id=":J2_3" function="internal">
        <lane id=":J2_3_0" index="0" speed="13.89" length="11.19" shape="-46.15,37.74 -34.96,37.73"/>
    </edge>
    <edge id=":J3_0" function="internal">
        <lane id=":J3_0_0" index="0" speed="3.90" length="2.56" shape="-40.46,11.56 -40.56,10.86 -40.85,10.36 -41.34,10.06 -42.04,9.95"/>
    </edge>
    <edge id=":J5_0" function="internal">
        <lane id=":J5_0_0" index="0" speed="13.89" length="11.13" shape="-6.18,40.83 -17.31,40.85"/>
    </edge>
    <edge id=":J5_1" function="internal">
        <lane id=":J5_1_0" index="0" speed="7.32" length="2.50" shape="-6.18,40.83 -8.62,40.28"/>
    </edge>
    <edge id=":J5_4" function="internal">
        <lane id=":J5_4_0" index="0" speed="7.32" length="9.19" shape="-8.62,40.28 -10.36,38.63 -11.40,35.88 -11.75,32.04"/>
    </edge>
    <edge id=":J5_2" function="internal">
        <lane id=":J5_2_0" index="0" speed="6.51" length="9.01" shape="-17.33,37.65 -14.89,37.29 -13.14,36.24 -12.10,34.49 -11.75,32.04"/>
    </edge>
    <edge id=":J5_3" function="internal">
        <lane id=":J5_3_0" index="0" speed="13.89" length="11.15" shape="-17.33,37.65 -6.17,37.63"/>
    </edge>
    <edge id=":J6_0" function="internal">
        <lane id=":J6_0_0" index="0" speed="3.90" length="2.58" shape="-11.75,-13.09 -11.85,-13.79 -12.15,-14.29 -12.65,-14.59 -13.35,-14.69"/>
    </edge>
    <edge id=":J8_0" function="internal">
        <lane id=":J8_0_0" index="0" speed="6.08" length="7.71" shape="20.05,36.12 19.73,38.20 18.82,39.69 17.33,40.59 15.24,40.88"/>
    </edge>
    <edge id=":J8_1" function="internal">
        <lane id=":J8_1_0" index="0" speed="3.90" length="2.57" shape="15.24,37.68 15.94,37.58 16.44,37.28 16.74,36.79 16.85,36.09"/>
    </edge>
    <edge id=":J9_0" function="internal">
        <lane id=":J9_0_0" index="0" speed="3.90" length="2.57" shape="21.91,1.79 21.21,1.89 20.72,2.18 20.41,2.68 20.31,3.38"/>
    </edge>
    <edge id=":J9_1" function="internal">
        <lane id=":J9_1_0" index="0" speed="6.08" length="7.70" shape="17.11,3.35 17.42,1.27 18.33,-0.22 19.82,-1.11 21.91,-1.41"/>
    </edge>

    <edge id="E0" from="J1" to="J2" priority="-1">
        <lane id="E0_0" index="0" speed="13.89" length="31.66" shape="-77.82,37.69 -46.15,37.74"/>
    </edge>
    <edge id="E1" from="J2" to="J3" priority="-1">
        <lane id="E1_0" index="0" speed="13.89" length="20.59" shape="-40.54,32.15 -40.46,11.56"/>
    </edge>
    <edge id="E10" from="J9" to="J8" priority="-1">
        <lane id="E10_0" index="0" speed="13.89" length="32.74" shape="20.31,3.38 20.05,36.12"/>
    </edge>
    <edge id="E11" from="J8" to="J5" priority="-1">
        <lane id="E11_0" index="0" speed="13.89" length="21.41" shape="15.24,40.88 -6.18,40.83"/>
    </edge>
    <edge id="E12" from="J5" to="J2" priority="-1">
        <lane id="E12_0" index="0" speed="13.89" length="17.64" shape="-17.31,40.85 -34.95,40.93"/>
    </edge>
    <edge id="E13" from="J2" to="J1" priority="-1">
        <lane id="E13_0" index="0" speed="13.89" length="31.66" shape="-46.16,40.94 -77.82,40.89"/>
    </edge>
    <edge id="E2" from="J3" to="J4" priority="-1">
        <lane id="E2_0" index="0" speed="13.89" length="36.19" shape="-42.04,9.95 -78.22,9.43"/>
    </edge>
    <edge id="E3" from="J2" to="J5" priority="-1">
        <lane id="E3_0" index="0" speed="13.89" length="17.64" shape="-34.96,37.73 -17.33,37.65"/>
    </edge>
    <edge id="E4" from="J5" to="J6" priority="-1">
        <lane id="E4_0" index="0" speed="13.89" length="45.13" shape="-11.75,32.04 -11.75,-13.09"/>
    </edge>
    <edge id="E5" from="J6" to="J7" priority="-1">
        <lane id="E5_0" index="0" speed="13.89" length="65.54" shape="-13.35,-14.69 -78.89,-14.75"/>
    </edge>
    <edge id="E6" from="J5" to="J8" priority="-1">
        <lane id="E6_0" index="0" speed="13.89" length="21.41" shape="-6.17,37.63 15.24,37.68"/>
    </edge>
    <edge id="E7" from="J8" to="J9" priority="-1">
        <lane id="E7_0" index="0" speed="13.89" length="32.74" shape="16.85,36.09 17.11,3.35"/>
    </edge>
    <edge id="E8" from="J9" to="J10" priority="-1">
        <lane id="E8_0" index="0" speed="13.89" length="26.27" shape="21.91,-1.41 48.18,-1.41"/>
    </edge>
    <edge id="E9" from="J10" to="J9" priority="-1">
        <lane id="E9_0" index="0" speed="13.89" length="26.27" shape="48.18,1.79 21.91,1.79"/>
    </edge>

    <junction id="J1" type="dead_end" x="-77.82" y="39.29" incLanes="E13_0" intLanes="" shape="-77.82,39.29 -77.82,42.49 -77.82,39.29"/>
    <junction id="J10" type="dead_end" x="48.18" y="0.19" incLanes="E8_0" intLanes="" shape="48.18,0.19 48.18,-3.01 48.18,0.19"/>
    <junction id="J2" type="priority" x="-38.97" y="39.35" incLanes="E12_0 E0_0" intLanes=":J2_0_0 :J2_4_0 :J2_2_0 :J2_3_0" shape="-34.94,42.53 -34.97,36.13 -37.18,35.70 -37.96,35.15 -38.51,34.37 -38.84,33.38 -38.94,32.16 -42.14,32.15 -42.60,34.37 -43.15,35.14 -43.93,35.70 -44.93,36.03 -46.15,36.14 -46.16,42.54">
        <request index="0" response="0000" foes="0000" cont="0"/>
        <request index="1" response="1100" foes="1100" cont="1"/>
        <request index="2" response="0000" foes="0010" cont="0"/>
        <request index="3" response="0000" foes="0010" cont="0"/>
    </junction>
    <junction id="J3" type="priority" x="-38.85" y="8.40" incLanes="E1_0" intLanes=":J3_0_0" shape="-42.01,8.35 -42.06,11.55 -38.86,11.56 -39.20,9.80 -39.64,9.18 -40.26,8.73 -41.05,8.45">
        <request index="0" response="0" foes="0" cont="0"/>
    </junction>
    <junction id="J4" type="dead_end" x="-78.20" y="7.83" incLanes="E2_0" intLanes="" shape="-78.24,11.03 -78.20,7.83"/>
    <junction id="J5" type="priority" x="-10.15" y="39.22" incLanes="E11_0 E3_0" intLanes=":J5_0_0 :J5_4_0 :J5_2_0 :J5_3_0" shape="-6.18,42.43 -6.17,36.03 -8.38,35.58 -9.15,35.03 -9.71,34.25 -10.04,33.26 -10.15,32.04 -13.35,32.04 -13.79,34.26 -14.35,35.04 -15.12,35.60 -16.12,35.94 -17.33,36.05 -17.31,42.45">
        <request index="0" response="0000" foes="0000" cont="0"/>
        <request index="1" response="1100" foes="1100" cont="1"/>
        <request index="2" response="0000" foes="0010" cont="0"/>
        <request index="3" response="0000" foes="0010" cont="0"/>
    </junction>
    <junction id="J6" type="priority" x="-10.15" y="-16.29" incLanes="E4_0" intLanes=":J6_0_0" shape="-13.35,-13.09 -10.15,-13.09 -10.51,-14.87 -10.95,-15.49 -11.57,-15.94 -12.37,-16.20 -13.35,-16.29">
        <request index="0" response="0" foes="0" cont="0"/>
    </junction>
    <junction id="J7" type="dead_end" x="-78.88" y="-16.35" incLanes="E5_0" intLanes="" shape="-78.89,-13.15 -78.88,-16.35"/>
    <junction id="J8" type="priority" x="18.42" y="39.29" incLanes="E10_0 E6_0" intLanes=":J8_0_0 :J8_1_0" shape="21.65,36.13 15.25,36.08 15.23,42.48 18.77,41.78 20.02,40.90 20.91,39.66 21.45,38.07">
        <request index="0" response="00" foes="00" cont="0"/>
        <request index="1" response="00" foes="00" cont="0"/>
    </junction>
    <junction id="J9" type="priority" x="18.73" y="0.19" incLanes="E9_0 E7_0" intLanes=":J9_0_0 :J9_1_0" shape="21.91,3.39 21.91,-3.01 18.38,-2.31 17.13,-1.42 16.24,-0.19 15.70,1.40 15.51,3.34">
        <request index="0" response="00" foes="00" cont="0"/>
        <request index="1" response="00" foes="00" cont="0"/>
    </junction>

    <junction id=":J2_4_0" type="internal" x="-37.41" y="40.39" incLanes=":J2_1_0 E0_0" intLanes=":J2_2_0 :J2_3_0"/>
    <junction id=":J5_4_0" type="internal" x="-8.62" y="40.28" incLanes=":J5_1_0 E3_0" intLanes=":J5_2_0 :J5_3_0"/>

    <connection from="E0" to="E1" fromLane="0" toLane="0" via=":J2_2_0" dir="r" state="M"/>
    <connection from="E0" to="E3" fromLane="0" toLane="0" via=":J2_3_0" dir="s" state="M"/>
    <connection from="E1" to="E2" fromLane="0" toLane="0" via=":J3_0_0" dir="r" state="M"/>
    <connection from="E10" to="E11" fromLane="0" toLane="0" via=":J8_0_0" dir="l" state="M"/>
    <connection from="E11" to="E12" fromLane="0" toLane="0" via=":J5_0_0" dir="s" state="M"/>
    <connection from="E11" to="E4" fromLane="0" toLane="0" via=":J5_1_0" dir="l" state="m"/>
    <connection from="E12" to="E13" fromLane="0" toLane="0" via=":J2_0_0" dir="s" state="M"/>
    <connection from="E12" to="E1" fromLane="0" toLane="0" via=":J2_1_0" dir="l" state="m"/>
    <connection from="E3" to="E4" fromLane="0" toLane="0" via=":J5_2_0" dir="r" state="M"/>
    <connection from="E3" to="E6" fromLane="0" toLane="0" via=":J5_3_0" dir="s" state="M"/>
    <connection from="E4" to="E5" fromLane="0" toLane="0" via=":J6_0_0" dir="r" state="M"/>
    <connection from="E6" to="E7" fromLane="0" toLane="0" via=":J8_1_0" dir="r" state="M"/>
    <connection from="E7" to="E8" fromLane="0" toLane="0" via=":J9_1_0" dir="l" state="M"/>
    <connection from="E9" to="E10" fromLane="0" toLane="0" via=":J9_0_0" dir="r" state="M"/>

    <connection from=":J2_0" to="E13" fromLane="0" toLane="0" dir="s" state="M"/>
    <connection from=":J2_1" to="E1" fromLane="0" toLane="0" via=":J2_4_0" dir="l" state="m"/>
    <connection from=":J2_4" to="E1" fromLane="0" toLane="0" dir="l" state="M"/>
    <connection from=":J2_2" to="E1" fromLane="0" toLane="0" dir="r" state="M"/>
    <connection from=":J2_3" to="E3" fromLane="0" toLane="0" dir="s" state="M"/>
    <connection from=":J3_0" to="E2" fromLane="0" toLane="0" dir="r" state="M"/>
    <connection from=":J5_0" to="E12" fromLane="0" toLane="0" dir="s" state="M"/>
    <connection from=":J5_1" to="E4" fromLane="0" toLane="0" via=":J5_4_0" dir="l" state="m"/>
    <connection from=":J5_4" to="E4" fromLane="0" toLane="0" dir="l" state="M"/>
    <connection from=":J5_2" to="E4" fromLane="0" toLane="0" dir="r" state="M"/>
    <connection from=":J5_3" to="E6" fromLane="0" toLane="0" dir="s" state="M"/>
    <connection from=":J6_0" to="E5" fromLane="0" toLane="0" dir="r" state="M"/>
    <connection from=":J8_0" to="E11" fromLane="0" toLane="0" dir="l" state="M"/>
    <connection from=":J8_1" to="E7" fromLane="0" toLane="0" dir="r" state="M"/>
    <connection from=":J9_0" to="E10" fromLane="0" toLane="0" dir="r" state="M"/>
    <connection from=":J9_1" to="E8" fromLane="0" toLane="0" dir="l" state="M"/>

</net>
